tests/node-breaker.xiidm
<?xml version="1.0" encoding="UTF-8"?>
<iidm:network xmlns:iidm="http://www.powsybl.org/schema/iidm/1_3" id="sim1" caseDate="2020-10-09T15:51:15.453+02:00" forecastDistance="0" sourceFormat="test">
    <iidm:substation id="S1" country="FR">
        <iidm:voltageLevel id="VLGEN" nominalV="24.0" lowVoltageLimit="30.0" topologyKind="NODE_BREAKER">
            <iidm:nodeBreakerTopology>
                <iidm:busbarSection id="BBGEN" node="0"/>
                <iidm:switch id="DISC-BBGEN-GEN" kind="DISCONNECTOR" retained="false" open="false" node1="0" node2="1"/>
                <iidm:switch id="BREAKER-BBGEN-GEN" kind="BREAKER" retained="false" open="false" node1="1" node2="2"/>
                <iidm:switch id="DISC-BBGEN-VLGEN_VL1" kind="DISCONNECTOR" retained="false" open="false" node1="0" node2="3"/>
                <iidm:switch id="BREAKER-BBGEN-VLGEN_VL1" kind="BREAKER" retained="false" open="false" node1="3" node2="4"/>
            </iidm:nodeBreakerTopology>
            <iidm:generator id="GEN" energySource="OTHER" minP="0.0" maxP="1000.0" voltageRegulatorOn="true" targetP="607.0" targetV="24.5" targetQ="301.0" node="2">
                <iidm:minMaxReactiveLimits minQ="-1000.0" maxQ="1000.0"/>
            </iidm:generator>
        </iidm:voltageLevel>
        <iidm:voltageLevel id="VL1" nominalV="380.0" lowVoltageLimit="420.0" topologyKind="NODE_BREAKER">
            <iidm:nodeBreakerTopology>
                <iidm:busbarSection id="BB1" node="0"/>
                <iidm:switch id="DISC-BB1-VL1_VL2_1" kind="DISCONNECTOR" retained="false" open="false" node1="0" node2="1"/>
                <iidm:switch id="BREAKER-BB1-VL1_VL2_1" kind="BREAKER" retained="false" open="false" node1="1" node2="2"/>
                <iidm:switch id="DISC-BB1-VL1_VL2_2" kind="DISCONNECTOR" retained="false" open="false" node1="0" node2="3"/>
                <iidm:switch id="BREAKER-BB1-VL1_VL2_2" kind="BREAKER" retained="false" open="false" node1="3" node2="4"/>
                <iidm:switch id="DISC-BB1-VLGEN_VL1" kind="DISCONNECTOR" retained="false" open="false" node1="0" node2="5"/>
                <iidm:switch id="BREAKER-BB1-VLGEN_VL1" kind="BREAKER" retained="false" open="false" node1="5" node2="6"/>
            </iidm:nodeBreakerTopology>
        </iidm:voltageLevel>
        <iidm:twoWindingsTransformer id="VLGEN_VL1" r="0.26658461538461536" x="11.104492831516762" g="0.0" b="0.0" ratedU1="24.0" ratedU2="400.0" node1="4" voltageLevelId1="VLGEN" node2="6" voltageLevelId2="VL1"/>
    </iidm:substation>
    <iidm:substation id="S2" country="FR">
        <iidm:voltageLevel id="VL2" nominalV="380.0" lowVoltageLimit="420.0" topologyKind="NODE_BREAKER">
            <iidm:nodeBreakerTopology>
                <iidm:busbarSection id="BB2" node="0"/>
                <iidm:switch id="DISC-BB2-VL1_VL2_1" kind="DISCONNECTOR" retained="false" open="false" node1="0" node2="1"/>
                <iidm:switch id="BREAKER-BB2-VL1_VL2_1" kind="BREAKER" retained="false" open="false" node1="1" node2="2"/>
                <iidm:switch id="DISC-BB2-VL1_VL2_2" kind="DISCONNECTOR" retained="false" open="false" node1="0" node2="3"/>
                <iidm:switch id="BREAKER-BB2-VL1_VL2_2" kind="BREAKER" retained="false" open="false" node1="3" node2="4"/>
                <iidm:switch id="DISC-BB2-VL2_VLLOAD" kind="DISCONNECTOR" retained="false" open="false" node1="0" node2="5"/>
                <iidm:switch id="BREAKER-BB2-VL2_VLLOAD" kind="BREAKER" retained="false" open="false" node1="5" node2="6"/>
            </iidm:nodeBreakerTopology>
        </iidm:voltageLevel>
        <iidm:voltageLevel id="VLLOAD" nominalV="150.0" lowVoltageLimit="160.0" topologyKind="NODE_BREAKER">
            <iidm:nodeBreakerTopology>
                <iidm:busbarSection id="BBLOAD" node="0"/>
                <iidm:switch id="DISC-BBLOAD-LOAD" kind="DISCONNECTOR" retained="false" open="false" node1="0" node2="1"/>
                <iidm:switch id="BREAKER-BBLOAD-LOAD" kind="BREAKER" retained="false" open="false" node1="1" node2="2"/>
                <iidm:switch id="DISC-BBLOAD-VL2_VLLOAD" kind="DISCONNECTOR" retained="false" open="false" node1="0" node2="3"/>
                <iidm:switch id="BREAKER-BBLOAD-VL2_VLLOAD" kind="BREAKER" retained="false" open="false" node1="3" node2="4"/>
            </iidm:nodeBreakerTopology>
            <iidm:load id="LOAD" loadType="UNDEFINED" p0="600.0" q0="200.0" node="2"/>
        </iidm:voltageLevel>
        <iidm:twoWindingsTransformer id="VL2_VLLOAD" r="0.04724999999999999" x="4.049724365620455" g="0.0" b="0.0" ratedU1="400.0" ratedU2="158.0" node1="6" voltageLevelId1="VL2" node2="4" voltageLevelId2="VLLOAD">
            <iidm:ratioTapChanger lowTapPosition="0" tapPosition="1" targetDeadband="0.0" loadTapChangingCapabilities="true" regulating="true" targetV="158.0">
                <iidm:terminalRef id="VL2_VLLOAD" side="TWO"/>
                <iidm:step r="0.0" x="0.0" g="0.0" b="0.0" rho="0.8505666905244191"/>
                <iidm:step r="0.0" x="0.0" g="0.0" b="0.0" rho="1.0006666666666666"/>
                <iidm:step r="0.0" x="0.0" g="0.0" b="0.0" rho="1.150766642808914"/>
            </iidm:ratioTapChanger>
        </iidm:twoWindingsTransformer>
    </iidm:substation>
    <iidm:line id="VL1_VL2_1" r="3.0" x="33.0" g1="0.0" b1="1.93E-4" g2="0.0" b2="1.93E-4" node1="2" voltageLevelId1="VL1" node2="2" voltageLevelId2="VL2">
        <iidm:currentLimits1 permanentLimit="500.0">
            <iidm:temporaryLimit name="IT20" acceptableDuration="1200" value="1200.0"/>
            <iidm:temporaryLimit name="IT10" acceptableDuration="600" value="1500.0"/>
            <iidm:temporaryLimit name="IT1" acceptableDuration="60"/>
        </iidm:currentLimits1>
    </iidm:line>
    <iidm:line id="VL1_VL2_2" r="3.0" x="33.0" g1="0.0" b1="1.93E-4" g2="0.0" b2="1.93E-4" node1="4" voltageLevelId1="VL1" node2="4" voltageLevelId2="VL2">
        <iidm:currentLimits1 permanentLimit="500.0">
            <iidm:temporaryLimit name="IT20" acceptableDuration="1200" value="1200.0"/>
            <iidm:temporaryLimit name="IT10" acceptableDuration="600" value="1500.0"/>
            <iidm:temporaryLimit name="IT1" acceptableDuration="60"/>
        </iidm:currentLimits1>
    </iidm:line>
</iidm:network>
